<?xml version="1.0" encoding="UTF-8"?>

<!-- generated on 2021-11-01 09:51:18 by Eclipse SUMO netedit Version 1.10.0
<configuration xmlns:xsi="http://www.w3.org/2001/XMLSchema-instance" xsi:noNamespaceSchemaLocation="http://sumo.dlr.de/xsd/netconvertConfiguration.xsd">

    <input>
        <sumo-net-file value="D:\sumo\bin\SUMO\HangXanhNe\hangxanhtraffic.net.xml"/>
    </input>

    <output>
        <output-file value="D:\sumo\bin\SUMO\HangXanhNe\hangxanhtraffic.net.xml"/>
    </output>

    <processing>
        <geometry.min-radius.fix.railways value="false"/>
        <geometry.max-grade.fix value="false"/>
        <offset.disable-normalization value="true"/>
        <lefthand value="false"/>
    </processing>

    <junctions>
        <no-turnarounds value="true"/>
        <junctions.corner-detail value="5"/>
        <junctions.limit-turn-speed value="5.5"/>
        <rectangular-lane-cut value="false"/>
    </junctions>

    <pedestrian>
        <walkingareas value="false"/>
    </pedestrian>

    <report>
        <aggregate-warnings value="5"/>
    </report>

</configuration>
-->

<net version="1.9" junctionCornerDetail="5" limitTurnSpeed="5.50" xmlns:xsi="http://www.w3.org/2001/XMLSchema-instance" xsi:noNamespaceSchemaLocation="http://sumo.dlr.de/xsd/net_file.xsd">

    <location netOffset="-686038.71,-1193557.17" convBoundary="0.00,0.00,2196.64,1681.58" origBoundary="106.701567,10.792501,106.721703,10.807652" projParameter="+proj=utm +zone=48 +ellps=WGS84 +datum=WGS84 +units=m +no_defs"/>

    <type id="highway.bridleway" priority="1" numLanes="1" speed="2.78" allow="pedestrian" oneway="1" width="2.00"/>
    <type id="highway.bus_guideway" priority="1" numLanes="1" speed="27.78" allow="bus" oneway="1"/>
    <type id="highway.cycleway" priority="1" numLanes="1" speed="8.33" allow="bicycle" oneway="1" width="1.00"/>
    <type id="highway.footway" priority="1" numLanes="1" speed="2.78" allow="pedestrian" oneway="1" width="2.00"/>
    <type id="highway.ford" priority="1" numLanes="1" speed="2.78" allow="army" oneway="1"/>
    <type id="highway.living_street" priority="2" numLanes="1" speed="2.78" disallow="tram rail_urban rail rail_electric rail_fast ship" oneway="1"/>
    <type id="highway.motorway" priority="14" numLanes="2" speed="39.44" allow="private emergency authority army vip passenger hov taxi bus coach delivery truck trailer motorcycle evehicle custom1 custom2" oneway="1"/>
    <type id="highway.motorway_link" priority="9" numLanes="1" speed="22.22" allow="private emergency authority army vip passenger hov taxi bus coach delivery truck trailer motorcycle evehicle custom1 custom2" oneway="1"/>
    <type id="highway.path" priority="1" numLanes="1" speed="2.78" allow="pedestrian bicycle" oneway="1" width="2.00"/>
    <type id="highway.pedestrian" priority="1" numLanes="1" speed="2.78" allow="pedestrian" oneway="1" width="2.00"/>
    <type id="highway.primary" priority="12" numLanes="2" speed="27.78" disallow="tram rail_urban rail rail_electric rail_fast ship" oneway="1"/>
    <type id="highway.primary_link" priority="7" numLanes="1" speed="22.22" disallow="tram rail_urban rail rail_electric rail_fast ship" oneway="1"/>
    <type id="highway.raceway" priority="15" numLanes="2" speed="83.33" allow="vip" oneway="1"/>
    <type id="highway.residential" priority="3" numLanes="1" speed="13.89" disallow="tram rail_urban rail rail_electric rail_fast ship" oneway="1"/>
    <type id="highway.secondary" priority="11" numLanes="1" speed="27.78" disallow="tram rail_urban rail rail_electric rail_fast ship" oneway="1"/>
    <type id="highway.secondary_link" priority="6" numLanes="1" speed="22.22" disallow="tram rail_urban rail rail_electric rail_fast ship" oneway="1"/>
    <type id="highway.service" priority="1" numLanes="1" speed="5.56" allow="pedestrian delivery bicycle" oneway="1"/>
    <type id="highway.stairs" priority="1" numLanes="1" speed="1.39" allow="pedestrian" oneway="1" width="2.00"/>
    <type id="highway.step" priority="1" numLanes="1" speed="1.39" allow="pedestrian" oneway="1" width="2.00"/>
    <type id="highway.steps" priority="1" numLanes="1" speed="1.39" allow="pedestrian" oneway="1" width="2.00"/>
    <type id="highway.tertiary" priority="10" numLanes="1" speed="22.22" disallow="tram rail_urban rail rail_electric rail_fast ship" oneway="1"/>
    <type id="highway.tertiary_link" priority="5" numLanes="1" speed="22.22" disallow="tram rail_urban rail rail_electric rail_fast ship" oneway="1"/>
    <type id="highway.track" priority="1" numLanes="1" speed="5.56" allow="pedestrian motorcycle moped bicycle" oneway="1"/>
    <type id="highway.trunk" priority="13" numLanes="2" speed="27.78" disallow="pedestrian bicycle tram rail_urban rail rail_electric rail_fast ship" oneway="1"/>
    <type id="highway.trunk_link" priority="8" numLanes="1" speed="22.22" disallow="pedestrian bicycle tram rail_urban rail rail_electric rail_fast ship" oneway="1"/>
    <type id="highway.unclassified" priority="4" numLanes="1" speed="13.89" disallow="tram rail_urban rail rail_electric rail_fast ship" oneway="1"/>
    <type id="highway.unsurfaced" priority="1" numLanes="1" speed="8.33" disallow="tram rail_urban rail rail_electric rail_fast ship" oneway="1"/>
    <type id="railway.highspeed" priority="21" numLanes="1" speed="69.44" allow="rail_fast" oneway="1"/>
    <type id="railway.light_rail" priority="19" numLanes="1" speed="27.78" allow="rail_urban" oneway="1"/>
    <type id="railway.preserved" priority="16" numLanes="1" speed="27.78" allow="rail" oneway="1"/>
    <type id="railway.rail" priority="20" numLanes="1" speed="44.44" allow="rail" oneway="1"/>
    <type id="railway.subway" priority="18" numLanes="1" speed="27.78" allow="rail_urban" oneway="1"/>
    <type id="railway.tram" priority="17" numLanes="1" speed="13.89" allow="tram" oneway="1"/>

    <edge id=":1276696951_0" function="internal">
        <lane id=":1276696951_0_0" index="0" disallow="tram rail_urban rail rail_electric rail_fast ship" speed="3.65" length="4.67" shape="2009.56,824.14 2010.97,824.47 2011.63,825.07 2011.54,825.96 2010.70,827.14"/>
    </edge>
    <edge id=":1497276506_0" function="internal">
        <lane id=":1497276506_0_0" index="0" disallow="tram rail_urban rail rail_electric rail_fast ship" speed="6.01" length="7.10" shape="1532.88,882.40 1533.37,883.85 1534.46,884.86 1536.15,885.43 1538.44,885.55"/>
    </edge>
    <edge id=":1497276506_1" function="internal">
        <lane id=":1497276506_1_0" index="0" disallow="tram rail_urban rail rail_electric rail_fast ship" speed="3.65" length="4.67" shape="1532.88,882.40 1532.22,883.68 1531.47,884.17 1530.63,883.87 1529.70,882.77"/>
    </edge>
    <edge id=":1497276506_2" function="internal">
        <lane id=":1497276506_2_0" index="0" disallow="tram rail_urban rail rail_electric rail_fast ship" speed="6.38" length="7.30" shape="1525.34,887.85 1527.40,886.95 1528.81,885.80 1529.58,884.40 1529.70,882.77"/>
    </edge>
    <edge id=":1497276506_3" function="internal">
        <lane id=":1497276506_3_0" index="0" disallow="tram rail_urban rail rail_electric rail_fast ship" speed="27.78" length="12.93" shape="1525.34,887.85 1529.12,886.65 1531.77,886.02 1534.48,885.72 1538.44,885.55"/>
        <lane id=":1497276506_3_1" index="1" disallow="tram rail_urban rail rail_electric rail_fast ship" speed="27.78" length="12.93" shape="1526.34,890.89 1529.87,889.77 1532.34,889.18 1534.87,888.91 1538.57,888.75"/>
    </edge>
    <edge id=":1497276507_0" function="internal">
        <lane id=":1497276507_0_0" index="0" disallow="tram rail_urban rail rail_electric rail_fast ship" speed="22.22" length="0.25" shape="1067.32,917.92 1067.35,917.99 1067.37,918.04 1067.40,918.08 1067.44,918.15"/>
    </edge>
    <edge id=":1497276509_0" function="internal">
        <lane id=":1497276509_0_0" index="0" disallow="tram rail_urban rail rail_electric rail_fast ship" speed="6.56" length="8.19" shape="1553.37,934.07 1551.94,932.38 1550.28,931.47 1548.40,931.32 1546.29,931.94"/>
    </edge>
    <edge id=":1497276509_1" function="internal">
        <lane id=":1497276509_1_0" index="0" disallow="tram rail_urban rail rail_electric rail_fast ship" speed="3.65" length="4.67" shape="1553.37,934.07 1553.40,932.62 1553.86,931.86 1554.75,931.76 1556.07,932.35"/>
    </edge>
    <edge id=":1497276509_2" function="internal">
        <lane id=":1497276509_2_0" index="0" disallow="tram rail_urban rail rail_electric rail_fast ship" speed="6.53" length="8.18" shape="1557.18,925.06 1555.71,926.70 1555.03,928.46 1555.15,930.34 1556.07,932.35"/>
    </edge>
    <edge id=":1497276509_3" function="internal">
        <lane id=":1497276509_3_0" index="0" disallow="tram rail_urban rail rail_electric rail_fast ship" speed="13.89" length="12.51" shape="1557.18,925.06 1554.23,927.52 1552.09,929.07 1549.77,930.33 1546.29,931.94"/>
        <lane id=":1497276509_3_1" index="1" disallow="tram rail_urban rail rail_electric rail_fast ship" speed="13.89" length="12.51" shape="1555.11,922.62 1552.36,924.90 1550.37,926.35 1548.21,927.53 1544.97,929.03"/>
    </edge>
    <edge id=":1497276515_0" function="internal">
        <lane id=":1497276515_0_0" index="0" disallow="tram rail_urban rail rail_electric rail_fast ship" speed="7.34" length="7.94" shape="1069.04,953.53 1069.56,955.76 1070.46,957.51 1071.75,958.80 1073.42,959.60"/>
        <lane id=":1497276515_0_1" index="1" disallow="tram rail_urban rail rail_electric rail_fast ship" speed="8.77" length="11.61" shape="1065.87,953.94 1066.63,957.11 1067.98,959.61 1069.93,961.47 1072.48,962.66"/>
        <lane id=":1497276515_0_2" index="2" disallow="tram rail_urban rail rail_electric rail_fast ship" speed="9.47" length="13.65" shape="1065.87,953.94 1066.74,958.61 1067.98,962.12 1069.58,964.49 1071.55,965.72"/>
    </edge>
    <edge id=":1497276515_3" function="internal">
        <lane id=":1497276515_3_0" index="0" disallow="tram rail_urban rail rail_electric rail_fast ship" speed="27.78" length="10.22" shape="1062.02,958.26 1065.45,958.28 1067.81,958.34 1070.13,958.70 1073.42,959.60"/>
        <lane id=":1497276515_3_1" index="1" disallow="tram rail_urban rail rail_electric rail_fast ship" speed="27.78" length="10.22" shape="1061.96,961.46 1065.12,961.47 1067.31,961.52 1069.45,961.84 1072.48,962.66"/>
        <lane id=":1497276515_3_2" index="2" disallow="tram rail_urban rail rail_electric rail_fast ship" speed="27.78" length="10.22" shape="1061.90,964.66 1064.80,964.66 1066.80,964.69 1068.77,964.97 1071.55,965.72"/>
        <lane id=":1497276515_3_3" index="3" disallow="tram rail_urban rail rail_electric rail_fast ship" speed="27.78" length="10.22" shape="1061.84,967.86 1064.48,967.85 1066.30,967.87 1068.08,968.11 1070.62,968.78"/>
    </edge>
    <edge id=":1497276518_0" function="internal">
        <lane id=":1497276518_0_0" index="0" disallow="tram rail_urban rail rail_electric rail_fast ship" speed="8.53" length="9.34" shape="1033.29,966.29 1036.39,966.93 1038.92,967.09 1040.90,966.75 1042.31,965.93"/>
        <lane id=":1497276518_0_1" index="1" disallow="tram rail_urban rail rail_electric rail_fast ship" speed="9.82" length="12.56" shape="1032.48,969.39 1036.41,970.15 1039.72,970.22 1042.42,969.58 1044.50,968.26"/>
        <lane id=":1497276518_0_2" index="2" disallow="tram rail_urban rail rail_electric rail_fast ship" speed="10.96" length="15.79" shape="1031.67,972.49 1036.43,973.37 1040.52,973.34 1043.95,972.42 1046.70,970.58"/>
        <lane id=":1497276518_0_3" index="3" disallow="tram rail_urban rail rail_electric rail_fast ship" speed="11.99" length="19.03" shape="1030.86,975.58 1036.45,976.58 1041.32,976.47 1045.47,975.25 1048.90,972.91"/>
    </edge>
    <edge id=":1497276518_4" function="internal">
        <lane id=":1497276518_4_0" index="0" disallow="tram rail_urban rail rail_electric rail_fast ship" speed="22.97" length="16.82" shape="1032.11,980.38 1034.12,975.49 1035.97,972.33 1038.44,969.59 1042.31,965.93"/>
        <lane id=":1497276518_4_1" index="1" disallow="tram rail_urban rail rail_electric rail_fast ship" speed="22.48" length="16.82" shape="1034.85,982.18 1036.76,977.48 1038.50,974.43 1040.82,971.77 1044.50,968.26"/>
        <lane id=":1497276518_4_2" index="2" disallow="tram rail_urban rail rail_electric rail_fast ship" speed="21.99" length="16.82" shape="1037.59,983.97 1039.40,979.47 1041.02,976.52 1043.20,973.96 1046.70,970.58"/>
        <lane id=":1497276518_4_3" index="3" disallow="tram rail_urban rail rail_electric rail_fast ship" speed="21.48" length="16.82" shape="1040.33,985.77 1042.04,981.46 1043.54,978.62 1045.58,976.14 1048.90,972.91"/>
    </edge>
    <edge id=":1497276524_0" function="internal">
        <lane id=":1497276524_0_0" index="0" disallow="tram rail_urban rail rail_electric rail_fast ship" speed="11.61" length="11.55" shape="1035.79,1011.09 1033.62,1008.74 1031.48,1007.91 1028.91,1007.70 1025.46,1007.23"/>
        <lane id=":1497276524_0_1" index="1" disallow="tram rail_urban rail rail_electric rail_fast ship" speed="12.00" length="12.38" shape="1035.79,1011.09 1033.69,1008.11 1031.89,1006.25 1029.64,1005.06 1026.16,1004.11"/>
        <lane id=":1497276524_0_2" index="2" disallow="tram rail_urban rail rail_electric rail_fast ship" speed="12.80" length="14.14" shape="1035.79,1011.09 1033.71,1007.37 1032.37,1004.50 1030.50,1002.40 1026.86,1000.99"/>
        <lane id=":1497276524_0_3" index="3" disallow="tram rail_urban rail rail_electric rail_fast ship" speed="13.81" length="16.52" shape="1035.79,1011.09 1033.72,1006.55 1032.88,1002.71 1031.44,999.75 1027.57,997.86"/>
    </edge>
    <edge id=":1497276524_4" function="internal">
        <lane id=":1497276524_4_0" index="0" disallow="tram rail_urban rail rail_electric rail_fast ship" speed="21.19" length="16.26" shape="1035.79,1011.09 1032.99,1006.67 1031.56,1003.35 1030.86,999.74 1030.25,994.50"/>
        <lane id=":1497276524_4_1" index="1" disallow="tram rail_urban rail rail_electric rail_fast ship" speed="20.58" length="16.26" shape="1038.43,1009.28 1035.81,1005.11 1034.52,1001.96 1033.91,998.55 1033.37,993.60"/>
        <lane id=":1497276524_4_2" index="2" disallow="tram rail_urban rail rail_electric rail_fast ship" speed="19.95" length="16.26" shape="1041.07,1007.47 1038.64,1003.55 1037.48,1000.57 1036.97,997.35 1036.48,992.70"/>
        <lane id=":1497276524_4_3" index="3" disallow="tram rail_urban rail rail_electric rail_fast ship" speed="19.30" length="16.26" shape="1043.71,1005.66 1041.46,1001.99 1040.44,999.18 1040.02,996.15 1039.60,991.79"/>
    </edge>
    <edge id=":1497276525_0" function="internal">
        <lane id=":1497276525_0_0" index="0" disallow="tram rail_urban rail rail_electric rail_fast ship" speed="10.88" length="11.41" shape="1099.35,1013.80 1095.11,1014.03 1091.85,1014.45 1089.58,1015.06 1088.28,1015.86"/>
        <lane id=":1497276525_0_1" index="1" disallow="tram rail_urban rail rail_electric rail_fast ship" speed="12.00" length="13.97" shape="1099.26,1010.60 1094.36,1010.91 1090.50,1011.54 1087.68,1012.48 1085.90,1013.73"/>
        <lane id=":1497276525_0_2" index="2" disallow="tram rail_urban rail rail_electric rail_fast ship" speed="13.03" length="16.54" shape="1099.17,1007.40 1093.61,1007.79 1089.15,1008.62 1085.78,1009.89 1083.52,1011.60"/>
        <lane id=":1497276525_0_3" index="3" disallow="tram rail_urban rail rail_electric rail_fast ship" speed="13.98" length="19.12" shape="1099.08,1004.20 1092.86,1004.68 1087.80,1005.71 1083.89,1007.31 1081.13,1009.46"/>
    </edge>
    <edge id=":1497276525_4" function="internal">
        <lane id=":1497276525_4_0" index="0" disallow="tram rail_urban rail rail_electric rail_fast ship" speed="18.82" length="17.12" shape="1096.94,1000.17 1095.75,1005.40 1094.25,1008.82 1091.93,1011.83 1088.28,1015.86"/>
        <lane id=":1497276525_4_1" index="1" disallow="tram rail_urban rail rail_electric rail_fast ship" speed="18.40" length="17.12" shape="1093.97,998.62 1092.87,1003.64 1091.50,1006.94 1089.36,1009.86 1085.90,1013.73"/>
        <lane id=":1497276525_4_2" index="2" disallow="tram rail_urban rail rail_electric rail_fast ship" speed="17.97" length="17.12" shape="1091.00,997.08 1089.98,1001.88 1088.75,1005.07 1086.78,1007.89 1083.52,1011.60"/>
        <lane id=":1497276525_4_3" index="3" disallow="tram rail_urban rail rail_electric rail_fast ship" speed="17.53" length="17.12" shape="1088.03,995.53 1087.09,1000.12 1086.00,1003.19 1084.20,1005.92 1081.13,1009.46"/>
    </edge>
    <edge id=":1497276531_0" function="internal">
        <lane id=":1497276531_0_0" index="0" disallow="tram rail_urban rail rail_electric rail_fast ship" speed="9.45" length="9.52" shape="1080.95,1021.47 1079.14,1022.78 1077.70,1024.51 1076.63,1026.65 1075.93,1029.19"/>
        <lane id=":1497276531_0_1" index="1" disallow="tram rail_urban rail rail_electric rail_fast ship" speed="10.15" length="11.07" shape="1080.95,1021.47 1077.58,1023.50 1075.09,1025.37 1073.50,1027.07 1072.78,1028.61"/>
    </edge>
    <edge id=":1497276531_2" function="internal">
        <lane id=":1497276531_2_0" index="0" disallow="tram rail_urban rail rail_electric rail_fast ship" speed="27.78" length="11.16" shape="1080.95,1021.47 1077.70,1023.12 1075.35,1023.96 1072.89,1024.54 1069.32,1025.41"/>
        <lane id=":1497276531_2_1" index="1" disallow="tram rail_urban rail rail_electric rail_fast ship" speed="27.78" length="11.16" shape="1079.39,1018.67 1076.35,1020.21 1074.14,1020.98 1071.83,1021.51 1068.49,1022.32"/>
        <lane id=":1497276531_2_2" index="2" disallow="tram rail_urban rail rail_electric rail_fast ship" speed="27.78" length="11.16" shape="1077.83,1015.87 1075.00,1017.30 1072.93,1018.01 1070.78,1018.48 1067.66,1019.23"/>
        <lane id=":1497276531_2_3" index="3" disallow="tram rail_urban rail rail_electric rail_fast ship" speed="27.78" length="11.16" shape="1076.28,1013.08 1073.65,1014.39 1071.73,1015.03 1069.72,1015.46 1066.83,1016.14"/>
    </edge>
    <edge id=":1497276532_0" function="internal">
        <lane id=":1497276532_0_0" index="0" disallow="tram rail_urban rail rail_electric rail_fast ship" speed="11.98" length="13.16" shape="1050.90,1030.76 1050.23,1027.54 1049.88,1025.16 1048.98,1023.17 1046.68,1021.13"/>
        <lane id=":1497276532_0_1" index="1" disallow="tram rail_urban rail rail_electric rail_fast ship" speed="13.10" length="13.16" shape="1053.97,1029.86 1053.10,1026.02 1052.52,1023.21 1051.29,1020.89 1048.47,1018.48"/>
        <lane id=":1497276532_0_2" index="2" disallow="tram rail_urban rail rail_electric rail_fast ship" speed="14.13" length="13.16" shape="1057.04,1028.96 1055.96,1024.49 1055.17,1021.27 1053.61,1018.61 1050.25,1015.82"/>
    </edge>
    <edge id=":1497276532_3" function="internal">
        <lane id=":1497276532_3_0" index="0" disallow="tram rail_urban rail rail_electric rail_fast ship" speed="16.79" length="13.27" shape="1060.19,1025.55 1055.91,1025.29 1052.99,1024.72 1050.29,1023.45 1046.68,1021.13"/>
        <lane id=":1497276532_3_1" index="1" disallow="tram rail_urban rail rail_electric rail_fast ship" speed="16.30" length="13.27" shape="1061.26,1022.39 1057.22,1022.19 1054.44,1021.73 1051.87,1020.62 1048.47,1018.48"/>
        <lane id=":1497276532_3_2" index="2" disallow="tram rail_urban rail rail_electric rail_fast ship" speed="15.80" length="13.27" shape="1062.33,1019.23 1058.53,1019.08 1055.89,1018.74 1053.45,1017.79 1050.25,1015.82"/>
        <lane id=":1497276532_3_3" index="3" disallow="tram rail_urban rail rail_electric rail_fast ship" speed="15.29" length="13.27" shape="1063.40,1016.07 1059.84,1015.98 1057.34,1015.75 1055.04,1014.96 1052.03,1013.16"/>
    </edge>
    <edge id=":1497313052_0" function="internal">
        <lane id=":1497313052_0_0" index="0" disallow="tram rail_urban rail rail_electric rail_fast ship" speed="27.78" length="9.25" shape="1048.54,771.33 1049.21,780.48"/>
        <lane id=":1497313052_0_1" index="1" disallow="tram rail_urban rail rail_electric rail_fast ship" speed="27.78" length="9.25" shape="1045.35,771.48 1046.02,780.78"/>
    </edge>
    <edge id=":1497313052_2" function="internal">
        <lane id=":1497313052_2_0" index="0" disallow="tram rail_urban rail rail_electric rail_fast ship" speed="6.02" length="7.22" shape="1045.35,771.48 1045.34,774.21 1045.01,776.19 1044.37,777.43 1043.41,777.93"/>
    </edge>
    <edge id=":1497313052_3" function="internal">
        <lane id=":1497313052_3_0" index="0" disallow="tram rail_urban rail rail_electric rail_fast ship" speed="5.89" length="7.29" shape="1043.05,774.75 1044.12,775.03 1044.98,776.13 1045.61,778.04 1046.02,780.78"/>
    </edge>
    <edge id=":1497313052_4" function="internal">
        <lane id=":1497313052_4_0" index="0" disallow="tram rail_urban rail rail_electric rail_fast ship" speed="3.65" length="4.67" shape="1043.05,774.75 1044.33,775.41 1044.82,776.16 1044.51,777.00 1043.41,777.93"/>
    </edge>
    <edge id=":1497313067_0" function="internal">
        <lane id=":1497313067_0_0" index="0" disallow="tram rail_urban rail rail_electric rail_fast ship" speed="6.08" length="9.06" shape="559.36,834.26 557.03,833.17 555.07,833.20 553.47,834.34 552.24,836.60"/>
    </edge>
    <edge id=":1497313067_1" function="internal">
        <lane id=":1497313067_1_0" index="0" disallow="tram rail_urban rail rail_electric rail_fast ship" speed="13.89" length="14.14" shape="559.36,834.26 555.76,831.92 553.32,830.29 550.96,828.54 547.60,825.88"/>
        <lane id=":1497313067_1_1" index="1" disallow="tram rail_urban rail rail_electric rail_fast ship" speed="13.89" length="14.14" shape="561.11,831.58 557.59,829.29 555.20,827.69 552.89,825.99 549.60,823.39"/>
        <lane id=":1497313067_1_2" index="2" disallow="tram rail_urban rail rail_electric rail_fast ship" speed="13.89" length="14.14" shape="562.86,828.90 559.42,826.66 557.08,825.10 554.82,823.44 551.60,820.89"/>
    </edge>
    <edge id=":1497313067_4" function="internal">
        <lane id=":1497313067_4_0" index="0" disallow="tram rail_urban rail rail_electric rail_fast ship" speed="7.90" length="10.45" shape="549.24,835.48 550.03,832.49 550.02,829.90 549.21,827.69 547.60,825.88"/>
    </edge>
    <edge id=":1497313067_5" function="internal">
        <lane id=":1497313067_5_0" index="0" disallow="tram rail_urban rail rail_electric rail_fast ship" speed="3.65" length="4.67" shape="549.24,835.48 550.41,834.63 551.30,834.54 551.91,835.19 552.24,836.60"/>
    </edge>
    <edge id=":1497313135_0" function="internal">
        <lane id=":1497313135_0_0" index="0" disallow="tram rail_urban rail rail_electric rail_fast ship" speed="6.90" length="9.47" shape="1914.02,1043.50 1912.33,1041.73 1910.38,1040.87 1908.16,1040.94 1905.67,1041.92"/>
    </edge>
    <edge id=":1497313135_1" function="internal">
        <lane id=":1497313135_1_0" index="0" disallow="tram rail_urban rail rail_electric rail_fast ship" speed="13.89" length="14.36" shape="1914.02,1043.50 1906.05,1031.55"/>
    </edge>
    <edge id=":1497313135_2" function="internal">
        <lane id=":1497313135_2_0" index="0" disallow="tram rail_urban rail rail_electric rail_fast ship" speed="3.65" length="2.34" shape="1914.02,1043.50 1913.99,1042.06 1914.42,1041.28"/>
    </edge>
    <edge id=":1497313135_9" function="internal">
        <lane id=":1497313135_9_0" index="0" disallow="tram rail_urban rail rail_electric rail_fast ship" speed="3.65" length="2.34" shape="1914.42,1041.28 1915.30,1041.15 1916.64,1041.67"/>
    </edge>
    <edge id=":1497313135_3" function="internal">
        <lane id=":1497313135_3_0" index="0" disallow="tram rail_urban rail rail_electric rail_fast ship" speed="13.89" length="14.24" shape="1908.75,1029.83 1916.64,1041.67"/>
    </edge>
    <edge id=":1497313135_4" function="internal">
        <lane id=":1497313135_4_0" index="0" disallow="tram rail_urban rail rail_electric rail_fast ship" speed="7.89" length="5.76" shape="1908.75,1029.83 1910.40,1033.47 1910.42,1035.23"/>
    </edge>
    <edge id=":1497313135_5" function="internal">
        <lane id=":1497313135_5_0" index="0" disallow="tram rail_urban rail rail_electric rail_fast ship" speed="3.65" length="2.34" shape="1908.75,1029.83 1908.72,1031.27 1908.26,1032.04"/>
    </edge>
    <edge id=":1497313135_10" function="internal">
        <lane id=":1497313135_10_0" index="0" disallow="tram rail_urban rail rail_electric rail_fast ship" speed="7.89" length="8.70" shape="1910.42,1035.23 1910.44,1036.70 1908.86,1039.51 1905.67,1041.92"/>
    </edge>
    <edge id=":1497313135_11" function="internal">
        <lane id=":1497313135_11_0" index="0" disallow="tram rail_urban rail rail_electric rail_fast ship" speed="3.65" length="2.34" shape="1908.26,1032.04 1907.37,1032.13 1906.05,1031.55"/>
    </edge>
    <edge id=":1497313135_6" function="internal">
        <lane id=":1497313135_6_0" index="0" disallow="tram rail_urban rail rail_electric rail_fast ship" speed="6.37" length="9.04" shape="1904.13,1039.12 1906.12,1037.61 1907.11,1035.85 1907.09,1033.83 1906.05,1031.55"/>
    </edge>
    <edge id=":1497313135_7" function="internal">
        <lane id=":1497313135_7_0" index="0" disallow="tram rail_urban rail rail_electric rail_fast ship" speed="8.34" length="14.25" shape="1904.13,1039.12 1907.82,1037.67 1911.14,1037.62 1914.08,1038.95 1916.64,1041.67"/>
    </edge>
    <edge id=":1497313135_8" function="internal">
        <lane id=":1497313135_8_0" index="0" disallow="tram rail_urban rail rail_electric rail_fast ship" speed="3.65" length="4.67" shape="1904.13,1039.12 1905.56,1039.24 1906.30,1039.75 1906.34,1040.64 1905.67,1041.92"/>
    </edge>
    <edge id=":1497313140_0" function="internal">
        <lane id=":1497313140_0_0" index="0" disallow="tram rail_urban rail rail_electric rail_fast ship" speed="7.14" length="11.86" shape="1871.39,1064.60 1871.45,1063.73 1870.57,1061.71 1868.73,1058.56 1865.93,1054.26"/>
    </edge>
    <edge id=":1497313140_1" function="internal">
        <lane id=":1497313140_1_0" index="0" disallow="tram rail_urban rail rail_electric rail_fast ship" speed="13.89" length="3.54" shape="1871.39,1064.60 1873.55,1062.25 1873.64,1061.92"/>
    </edge>
    <edge id=":1497313140_2" function="internal">
        <lane id=":1497313140_2_0" index="0" disallow="tram rail_urban rail rail_electric rail_fast ship" speed="6.84" length="3.77" shape="1871.39,1064.60 1872.33,1062.19 1873.25,1061.45"/>
    </edge>
    <edge id=":1497313140_9" function="internal">
        <lane id=":1497313140_9_0" index="0" disallow="tram rail_urban rail rail_electric rail_fast ship" speed="13.89" length="9.10" shape="1873.64,1061.92 1874.37,1059.23 1875.18,1056.22 1877.34,1053.86"/>
    </edge>
    <edge id=":1497313140_10" function="internal">
        <lane id=":1497313140_10_0" index="0" disallow="tram rail_urban rail rail_electric rail_fast ship" speed="6.84" length="4.62" shape="1873.25,1061.45 1873.59,1061.19 1875.14,1061.58 1877.00,1063.39"/>
    </edge>
    <edge id=":1497313140_3" function="internal">
        <lane id=":1497313140_3_0" index="0" disallow="tram rail_urban rail rail_electric rail_fast ship" speed="5.89" length="8.40" shape="1878.88,1056.66 1876.80,1058.17 1875.79,1059.79 1875.86,1061.53 1877.00,1063.39"/>
    </edge>
    <edge id=":1497313140_4" function="internal">
        <lane id=":1497313140_4_0" index="0" disallow="tram rail_urban rail rail_electric rail_fast ship" speed="8.42" length="14.74" shape="1878.88,1056.66 1874.97,1058.22 1871.51,1058.34 1868.49,1057.02 1865.93,1054.26"/>
    </edge>
    <edge id=":1497313140_5" function="internal">
        <lane id=":1497313140_5_0" index="0" disallow="tram rail_urban rail rail_electric rail_fast ship" speed="3.65" length="4.67" shape="1878.88,1056.66 1877.45,1056.54 1876.71,1056.03 1876.68,1055.14 1877.34,1053.86"/>
    </edge>
    <edge id=":1497313140_6" function="internal">
        <lane id=":1497313140_6_0" index="0" disallow="tram rail_urban rail rail_electric rail_fast ship" speed="7.01" length="9.91" shape="1868.58,1052.47 1870.27,1054.26 1872.30,1055.08 1874.65,1054.95 1877.34,1053.86"/>
    </edge>
    <edge id=":1497313140_7" function="internal">
        <lane id=":1497313140_7_0" index="0" disallow="tram rail_urban rail rail_electric rail_fast ship" speed="13.89" length="13.80" shape="1868.58,1052.47 1870.61,1055.40 1872.60,1058.07 1874.69,1060.68 1877.00,1063.39"/>
    </edge>
    <edge id=":1497313140_8" function="internal">
        <lane id=":1497313140_8_0" index="0" disallow="tram rail_urban rail rail_electric rail_fast ship" speed="3.65" length="2.34" shape="1868.58,1052.47 1868.59,1053.91 1868.15,1054.69"/>
    </edge>
    <edge id=":1497313140_11" function="internal">
        <lane id=":1497313140_11_0" index="0" disallow="tram rail_urban rail rail_electric rail_fast ship" speed="3.65" length="2.34" shape="1868.15,1054.69 1867.26,1054.81 1865.93,1054.26"/>
    </edge>
    <edge id=":1497313145_0" function="internal">
        <lane id=":1497313145_0_0" index="0" disallow="tram rail_urban rail rail_electric rail_fast ship" speed="3.65" length="4.67" shape="1897.01,1092.85 1898.43,1093.08 1899.13,1093.65 1899.09,1094.54 1898.33,1095.77"/>
    </edge>
    <edge id=":1497313146_0" function="internal">
        <lane id=":1497313146_0_0" index="0" disallow="tram rail_urban rail rail_electric rail_fast ship" speed="3.65" length="4.67" shape="1916.76,1123.04 1918.19,1123.26 1918.88,1123.82 1918.85,1124.72 1918.10,1125.94"/>
    </edge>
    <edge id=":1497313154_0" function="internal">
        <lane id=":1497313154_0_0" index="0" disallow="tram rail_urban rail rail_electric rail_fast ship" speed="13.89" length="14.60" shape="1780.32,1192.62 1774.54,1179.21"/>
    </edge>
    <edge id=":1497313154_1" function="internal">
        <lane id=":1497313154_1_0" index="0" disallow="tram rail_urban rail rail_electric rail_fast ship" speed="7.92" length="6.16" shape="1780.32,1192.62 1779.20,1188.82 1779.48,1186.63"/>
    </edge>
    <edge id=":1497313154_2" function="internal">