<?xml version="1.0" encoding="UTF-8"?>

<!-- generated on 2021-11-01 10:00:13 by Eclipse SUMO duarouter Version 1.10.0
<configuration xmlns:xsi="http://www.w3.org/2001/XMLSchema-instance" xsi:noNamespaceSchemaLocation="http://sumo.dlr.de/xsd/duarouterConfiguration.xsd">

    <input>
        <net-file value="hangxanhtraffic.net.xml"/>
        <route-files value="flows.xml"/>
    </input>

    <output>
        <output-file value="hangxanh.rou.xml"/>
        <alternatives-output value="hangxanh.rou.alt.xml"/>
    </output>

</configuration>
-->

<routes xmlns:xsi="http://www.w3.org/2001/XMLSchema-instance" xsi:noNamespaceSchemaLocation="http://sumo.dlr.de/xsd/routes_file.xsd">
    <vehicle id="1.0" depart="0.00" color="red">
        <route edges="977523910 192512342 53551383#0"/>
    </vehicle>
    <vehicle id="10.0" depart="0.00" color="red">
        <route edges="231981990#1 725686333 971692797#0 971692797#1 971692797#2 971692798 977346734 192512337#0 192512337#1 330532283#0 330532283#1 192512371#0 192512371#1 192512371#2 192512371#3 192512371#4 192512371#5"/>
    </vehicle>
    <vehicle id="11.0" depart="0.00" color="yellow">
        <route edges="192512365#2 192512411 231982479#1 231982479#2"/>
    </vehicle>
    <vehicle id="12.0" depart="0.00" color="green">
        <route edges="828862775 478798993 478798995"/>
    </vehicle>
    <vehicle id="13.0" depart="0.00" color="red">
        <route edges="828862772 478798994 197995862"/>
    </vehicle>
    <vehicle id="2.0" depart="0.00" color="yellow">
        <route edges="818992111#4 192512402#0 192512402#1 192512402#2 330532283#0"/>
    </vehicle>
    <vehicle id="3.0" depart="0.00" color="green">
        <route edges="818992111#4 330532357 977346734 136502345#0 136502345#1 977523911 53551383#0"/>
    </vehicle>
    <vehicle id="4.0" depart="0.00" color="red">
        <route edges="818992111#4 330532357 977346734 136502345#0 136502345#1 971692819 971692797#0 192512353#0 192512353#1 192512312#0"/>
    </vehicle>
    <vehicle id="5.0" depart="0.00" color="yellow">
        <route edges="192512365#2 192512411 231982479#1 231982479#2"/>
    </vehicle>
    <vehicle id="6.0" depart="0.00" color="green">
        <route edges="828862775 478798993 478798995"/>
    </vehicle>
    <vehicle id="7.0" depart="0.00" color="red">
        <route edges="828862772 478798994 197995862"/>
    </vehicle>
    <vehicle id="8.0" depart="0.00" color="yellow">
        <route edges="231981990#1 192512406 192512312#0"/>
    </vehicle>
    <vehicle id="9.0" depart="0.00" color="green">
        <route edges="231981990#1 725686333 971692797#0 971692797#1 971692797#2 231982479#0 231982479#1 231982479#2 231982479#3 681539364#0"/>
    </vehicle>
    <vehicle id="1.1" depart="2.40" color="red">
        <route edges="977523910 192512342 53551383#0"/>
    </vehicle>
    <vehicle id="10.1" depart="2.40" color="red">
        <route edges="231981990#1 725686333 971692797#0 971692797#1 971692797#2 971692798 977346734 192512337#0 192512337#1 330532283#0 330532283#1 192512371#0 192512371#1 192512371#2 192512371#3 192512371#4 192512371#5"/>
    </vehicle>
    <vehicle id="13.1" depart="2.40" color="red">
        <route edges="828862772 478798994 197995862"/>
    </vehicle>
    <vehicle id="4.1" depart="2.40" color="red">
        <route edges="818992111#4 330532357 977346734 136502345#0 136502345#1 971692819 971692797#0 192512353#0 192512353#1 192512312#0"/>
    </vehicle>
    <vehicle id="7.1" depart="2.40" color="red">
        <route edges="828862772 478798994 197995862"/>
    </vehicle>
    <vehicle id="11.1" depart="3.60" color="yellow">
        <route edges="192512365#2 192512411 231982479#1 231982479#2"/>
    </vehicle>
    <vehicle id="2.1" depart="3.60" color="yellow">
        <route edges="818992111#4 192512402#0 192512402#1 192512402#2 330532283#0"/>
    </vehicle>
    <vehicle id="5.1" depart="3.60" color="yellow">
        <route edges="192512365#2 192512411 231982479#1 231982479#2"/>
    </vehicle>
    <vehicle id="8.1" depart="3.60" color="yellow">
        <route edges="231981990#1 192512406 192512312#0"/>
    </vehicle>
    <vehicle id="1.2" depart="4.80" color="red">
        <route edges="977523910 192512342 53551383#0"/>
    </vehicle>
    <vehicle id="10.2" depart="4.80" color="red">
        <route edges="231981990#1 725686333 971692797#0 971692797#1 971692797#2 971692798 977346734 192512337#0 192512337#1 330532283#0 330532283#1 192512371#0 192512371#1 192512371#2 192512371#3 192512371#4 192512371#5"/>
    </vehicle>
    <vehicle id="13.2" depart="4.80" color="red">
        <route edges="828862772 478798994 197995862"/>
    </vehicle>
    <vehicle id="4.2" depart="4.80" color="red">
        <route edges="818992111#4 330532357 977346734 136502345#0 136502345#1 971692819 971692797#0 192512353#0 192512353#1 192512312#0"/>
    </vehicle>
    <vehicle id="7.2" depart="4.80" color="red">
        <route edges="828862772 478798994 197995862"/>
    </vehicle>
    <vehicle id="1.3" depart="7.20" color="red">
        <route edges="977523910 192512342 53551383#0"/>
    </vehicle>
    <vehicle id="10.3" depart="7.20" color="red">
        <route edges="231981990#1 725686333 971692797#0 971692797#1 971692797#2 971692798 977346734 192512337#0 192512337#1 330532283#0 330532283#1 192512371#0 192512371#1 192512371#2 192512371#3 192512371#4 192512371#5"/>
    </vehicle>
    <vehicle id="11.2" depart="7.20" color="yellow">
        <route edges="192512365#2 192512411 231982479#1 231982479#2"/>
    </vehicle>
    <vehicle id="12.1" depart="7.20" color="green">
        <route edges="828862775 478798993 478798995"/>
    </vehicle>
    <vehicle id="13.3" depart="7.20" color="red">
        <route edges="828862772 478798994 197995862"/>
    </vehicle>
    <vehicle id="2.2" depart="7.20" color="yellow">
        <route edges="818992111#4 192512402#0 192512402#1 192512402#2 330532283#0"/>
    </vehicle>
    <vehicle id="3.1" depart="7.20" color="green">
        <route edges="818992111#4 330532357 977346734 136502345#0 136502345#1 977523911 53551383#0"/>
    </vehicle>
    <vehicle id="4.3" depart="7.20" color="red">
        <route edges="818992111#4 330532357 977346734 136502345#0 136502345#1 971692819 971692797#0 192512353#0 192512353#1 192512312#0"/>
    </vehicle>
    <vehicle id="5.2" depart="7.20" color="yellow">
        <route edges="192512365#2 192512411 231982479#1 231982479#2"/>
    </vehicle>
    <vehicle id="6.1" depart="7.20" color="green">
        <route edges="828862775 478798993 478798995"/>
    </vehicle>
    <vehicle id="7.3" depart="7.20" color="red">
        <route edges="828862772 478798994 197995862"/>
    </vehicle>
    <vehicle id="8.2" depart="7.20" color="yellow">
        <route edges="231981990#1 192512406 192512312#0"/>
    </vehicle>
    <vehicle id="9.1" depart="7.20" color="green">
        <route edges="231981990#1 725686333 971692797#0 971692797#1 971692797#2 231982479#0 231982479#1 231982479#2 231982479#3 681539364#0"/>
    </vehicle>
    <vehicle id="1.4" depart="9.60" color="red">
        <route edges="977523910 192512342 53551383#0"/>
    </vehicle>
    <vehicle id="10.4" depart="9.60" color="red">
        <route edges="231981990#1 725686333 971692797#0 971692797#1 971692797#2 971692798 977346734 192512337#0 192512337#1 330532283#0 330532283#1 192512371#0 192512371#1 192512371#2 192512371#3 192512371#4 192512371#5"/>
    </vehicle>
    <vehicle id="13.4" depart="9.60" color="red">
        <route edges="828862772 478798994 197995862"/>
    </vehicle>
    <vehicle id="4.4" depart="9.60" color="red">
        <route edges="818992111#4 330532357 977346734 136502345#0 136502345#1 971692819 971692797#0 192512353#0 192512353#1 192512312#0"/>
    </vehicle>
    <vehicle id="7.4" depart="9.60" color="red">
        <route edges="828862772 478798994 197995862"/>
    </vehicle>
    <vehicle id="11.3" depart="10.80" color="yellow">
        <route edges="192512365#2 192512411 231982479#1 231982479#2"/>
    </vehicle>
    <vehicle id="2.3" depart="10.80" color="yellow">
        <route edges="818992111#4 192512402#0 192512402#1 192512402#2 330532283#0"/>
    </vehicle>
    <vehicle id="5.3" depart="10.80" color="yellow">
        <route edges="192512365#2 192512411 231982479#1 231982479#2"/>
    </vehicle>
    <vehicle id="8.3" depart="10.80" color="yellow">
        <route edges="231981990#1 192512406 192512312#0"/>
    </vehicle>
    <vehicle id="1.5" depart="12.00" color="red">
        <route edges="977523910 192512342 53551383#0"/>
    </vehicle>
    <vehicle id="10.5" depart="12.00" color="red">
        <route edges="231981990#1 725686333 971692797#0 971692797#1 971692797#2 971692798 977346734 192512337#0 192512337#1 330532283#0 330532283#1 192512371#0 192512371#1 192512371#2 192512371#3 192512371#4 192512371#5"/>
    </vehicle>
    <vehicle id="13.5" depart="12.00" color="red">
        <route edges="828862772 478798994 197995862"/>
    </vehicle>
    <vehicle id="4.5" depart="12.00" color="red">
        <route edges="818992111#4 330532357 977346734 136502345#0 136502345#1 971692819 971692797#0 192512353#0 192512353#1 192512312#0"/>
    </vehicle>
    <vehicle id="7.5" depart="12.00" color="red">
        <route edges="828862772 478798994 197995862"/>
    </vehicle>
    <vehicle id="1.6" depart="14.40" color="red">
        <route edges="977523910 192512342 53551383#0"/>
    </vehicle>
    <vehicle id="10.6" depart="14.40" color="red">
        <route edges="231981990#1 725686333 971692797#0 971692797#1 971692797#2 971692798 977346734 192512337#0 192512337#1 330532283#0 330532283#1 192512371#0 192512371#1 192512371#2 192512371#3 192512371#4 192512371#5"/>
    </vehicle>
    <vehicle id="11.4" depart="14.40" color="yellow">
        <route edges="192512365#2 192512411 231982479#1 231982479#2"/>
    </vehicle>
    <vehicle id="12.2" depart="14.40" color="green">
        <route edges="828862775 478798993 478798995"/>
    </vehicle>
    <vehicle id="13.6" depart="14.40" color="red">
        <route edges="828862772 478798994 197995862"/>
    </vehicle>
    <vehicle id="2.4" depart="14.40" color="yellow">
        <route edges="818992111#4 192512402#0 192512402#1 192512402#2 330532283#0"/>
    </vehicle>
    <vehicle id="3.2" depart="14.40" color="green">
        <route edges="818992111#4 330532357 977346734 136502345#0 136502345#1 977523911 53551383#0"/>
    </vehicle>
    <vehicle id="4.6" depart="14.40" color="red">
        <route edges="818992111#4 330532357 977346734 136502345#0 136502345#1 971692819 971692797#0 192512353#0 192512353#1 192512312#0"/>
    </vehicle>
    <vehicle id="5.4" depart="14.40" color="yellow">
        <route edges="192512365#2 192512411 231982479#1 231982479#2"/>
    </vehicle>
    <vehicle id="6.2" depart="14.40" color="green">
        <route edges="828862775 478798993 478798995"/>
    </vehicle>
    <vehicle id="7.6" depart="14.40" color="red">
        <route edges="828862772 478798994 197995862"/>
    </vehicle>
    <vehicle id="8.4" depart="14.40" color="yellow">
        <route edges="231981990#1 192512406 192512312#0"/>
    </vehicle>
    <vehicle id="9.2" depart="14.40" color="green">
        <route edges="231981990#1 725686333 971692797#0 971692797#1 971692797#2 231982479#0 231982479#1 231982479#2 231982479#3 681539364#0"/>
    </vehicle>
    <vehicle id="1.7" depart="16.80" color="red">
        <route edges="977523910 192512342 53551383#0"/>
    </vehicle>
    <vehicle id="10.7" depart="16.80" color="red">
        <route edges="231981990#1 725686333 971692797#0 971692797#1 971692797#2 971692798 977346734 192512337#0 192512337#1 330532283#0 330532283#1 192512371#0 192512371#1 192512371#2 192512371#3 192512371#4 192512371#5"/>
    </vehicle>
    <vehicle id="13.7" depart="16.80" color="red">
        <route edges="828862772 478798994 197995862"/>
    </vehicle>
    <vehicle id="4.7" depart="16.80" color="red">
        <route edges="818992111#4 330532357 977346734 136502345#0 136502345#1 971692819 971692797#0 192512353#0 192512353#1 192512312#0"/>
    </vehicle>
    <vehicle id="7.7" depart="16.80" color="red">
        <route edges="828862772 478798994 197995862"/>
    </vehicle>
    <vehicle id="11.5" depart="18.00" color="yellow">
        <route edges="192512365#2 192512411 231982479#1 231982479#2"/>
    </vehicle>
    <vehicle id="2.5" depart="18.00" color="yellow">
        <route edges="818992111#4 192512402#0 192512402#1 192512402#2 330532283#0"/>
    </vehicle>
    <vehicle id="5.5" depart="18.00" color="yellow">
        <route edges="192512365#2 192512411 231982479#1 231982479#2"/>
    </vehicle>
    <vehicle id="8.5" depart="18.00" color="yellow">
        <route edges="231981990#1 192512406 192512312#0"/>
    </vehicle>
    <vehicle id="1.8" depart="19.20" color="red">
        <route edges="977523910 192512342 53551383#0"/>
    </vehicle>
    <vehicle id="10.8" depart="19.20" color="red">
        <route edges="231981990#1 725686333 971692797#0 971692797#1 971692797#2 971692798 977346734 192512337#0 192512337#1 330532283#0 330532283#1 192512371#0 192512371#1 192512371#2 192512371#3 192512371#4 192512371#5"/>
    </vehicle>
    <vehicle id="13.8" depart="19.20" color="red">
        <route edges="828862772 478798994 197995862"/>
    </vehicle>
    <vehicle id="4.8" depart="19.20" color="red">
        <route edges="818992111#4 330532357 977346734 136502345#0 136502345#1 971692819 971692797#0 192512353#0 192512353#1 192512312#0"/>
    </vehicle>
    <vehicle id="7.8" depart="19.20" color="red">
        <route edges="828862772 478798994 197995862"/>
    </vehicle>
    <vehicle id="1.9" depart="21.60" color="red">
        <route edges="977523910 192512342 53551383#0"/>
    </vehicle>
    <vehicle id="10.9" depart="21.60" color="red">
        <route edges="231981990#1 725686333 971692797#0 971692797#1 971692797#2 971692798 977346734 192512337#0 192512337#1 330532283#0 330532283#1 192512371#0 192512371#1 192512371#2 192512371#3 192512371#4 192512371#5"/>
    </vehicle>
    <vehicle id="11.6" depart="21.60" color="yellow">
        <route edges="192512365#2 192512411 231982479#1 231982479#2"/>
    </vehicle>
    <vehicle id="12.3" depart="21.60" color="green">
        <route edges="828862775 478798993 478798995"/>
    </vehicle>
    <vehicle id="13.9" depart="21.60" color="red">
        <route edges="828862772 478798994 197995862"/>
    </vehicle>
    <vehicle id="2.6" depart="21.60" color="yellow">
        <route edges="818992111#4 192512402#0 192512402#1 192512402#2 330532283#0"/>
    </vehicle>
    <vehicle id="3.3" depart="21.60" color="green">
        <route edges="818992111#4 330532357 977346734 136502345#0 136502345#1 977523911 53551383#0"/>
    </vehicle>
    <vehicle id="4.9" depart="21.60" color="red">
        <route edges="818992111#4 330532357 977346734 136502345#0 136502345#1 971692819 971692797#0 192512353#0 192512353#1 192512312#0"/>
    </vehicle>
    <vehicle id="5.6" depart="21.60" color="yellow">
        <route edges="192512365#2 192512411 231982479#1 231982479#2"/>
    </vehicle>
    <vehicle id="6.3" depart="21.60" color="green">
        <route edges="828862775 478798993 478798995"/>
    </vehicle>
    <vehicle id="7.9" depart="21.60" color="red">
        <route edges="828862772 478798994 197995862"/>
    </vehicle>
    <vehicle id="8.6" depart="21.60" color="yellow">
        <route edges="231981990#1 192512406 192512312#0"/>
    </vehicle>
    <vehicle id="9.3" depart="21.60" color="green">
        <route edges="231981990#1 725686333 971692797#0 971692797#1 971692797#2 231982479#0 231982479#1 231982479#2 231982479#3 681539364#0"/>
    </vehicle>
    <vehicle id="1.10" depart="24.00" color="red">
        <route edges="977523910 192512342 53551383#0"/>
    </vehicle>
    <vehicle id="10.10" depart="24.00" color="red">
        <route edges="231981990#1 725686333 971692797#0 971692797#1 971692797#2 971692798 977346734 192512337#0 192512337#1 330532283#0 330532283#1 192512371#0 192512371#1 192512371#2 192512371#3 192512371#4 192512371#5"/>
    </vehicle>
    <vehicle id="13.10" depart="24.00" color="red">
        <route edges="828862772 478798994 197995862"/>
    </vehicle>
    <vehicle id="4.10" depart="24.00" color="red">
        <route edges="818992111#4 330532357 977346734 136502345#0 136502345#1 971692819 971692797#0 192512353#0 192512353#1 192512312#0"/>
    </vehicle>
    <vehicle id="7.10" depart="24.00" color="red">
        <route edges="828862772 478798994 197995862"/>
    </vehicle>
    <vehicle id="11.7" depart="25.20" color="yellow">
        <route edges="192512365#2 192512411 231982479#1 231982479#2"/>
    </vehicle>
    <vehicle id="2.7" depart="25.20" color="yellow">
        <route edges="818992111#4 192512402#0 192512402#1 192512402#2 330532283#0"/>
    </vehicle>
    <vehicle id="5.7" depart="25.20" color="yellow">
        <route edges="192512365#2 192512411 231982479#1 231982479#2"/>
    </vehicle>
    <vehicle id="8.7" depart="25.20" color="yellow">
        <route edges="231981990#1 192512406 192512312#0"/>
    </vehicle>
    <vehicle id="1.11" depart="26.40" color="red">
        <route edges="977523910 192512342 53551383#0"/>
    </vehicle>
    <vehicle id="10.11" depart="26.40" color="red">
        <route edges="231981990#1 725686333 971692797#0 971692797#1 971692797#2 971692798 977346734 192512337#0 192512337#1 330532283#0 330532283#1 192512371#0 192512371#1 192512371#2 192512371#3 192512371#4 192512371#5"/>
    </vehicle>
    <vehicle id="13.11" depart="26.40" color="red">
        <route edges="828862772 478798994 197995862"/>
    </vehicle>
    <vehicle id="4.11" depart="26.40" color="red">
        <route edges="818992111#4 330532357 977346734 136502345#0 136502345#1 971692819 971692797#0 192512353#0 192512353#1 192512312#0"/>
    </vehicle>
    <vehicle id="7.11" depart="26.40" color="red">
        <route edges="828862772 478798994 197995862"/>
    </vehicle>
    <vehicle id="1.12" depart="28.80" color="red">
        <route edges="977523910 192512342 53551383#0"/>
    </vehicle>
    <vehicle id="10.12" depart="28.80" color="red">
        <route edges="231981990#1 725686333 971692797#0 971692797#1 971692797#2 971692798 977346734 192512337#0 192512337#1 330532283#0 330532283#1 192512371#0 192512371#1 192512371#2 192512371#3 192512371#4 192512371#5"/>
    </vehicle>
    <vehicle id="11.8" depart="28.80" color="yellow">
        <route edges="192512365#2 192512411 231982479#1 231982479#2"/>
    </vehicle>
    <vehicle id="12.4" depart="28.80" color="green">
        <route edges="828862775 478798993 478798995"/>
    </vehicle>
    <vehicle id="13.12" depart="28.80" color="red">
        <route edges="828862772 478798994 197995862"/>
    </vehicle>
    <vehicle id="2.8" depart="28.80" color="yellow">
        <route edges="818992111#4 192512402#0 192512402#1 192512402#2 330532283#0"/>
    </vehicle>
    <vehicle id="3.4" depart="28.80" color="green">
        <route edges="818992111#4 330532357 977346734 136502345#0 136502345#1 977523911 53551383#0"/>
    </vehicle>
    <vehicle id="4.12" depart="28.80" color="red">
        <route edges="818992111#4 330532357 977346734 136502345#0 136502345#1 971692819 971692797#0 192512353#0 192512353#1 192512312#0"/>
    </vehicle>
    <vehicle id="5.8" depart="28.80" color="yellow">
        <route edges="192512365#2 192512411 231982479#1 231982479#2"/>
    </vehicle>
    <vehicle id="6.4" depart="28.80" color="green">
        <route edges="828862775 478798993 478798995"/>
    </vehicle>
    <vehicle id="7.12" depart="28.80" color="red">
        <route edges="828862772 478798994 197995862"/>
    </vehicle>
    <vehicle id="8.8" depart="28.80" color="yellow">
        <route edges="231981990#1 192512406 192512312#0"/>
    </vehicle>
    <vehicle id="9.4" depart="28.80" color="green">
        <route edges="231981990#1 725686333 971692797#0 971692797#1 971692797#2 231982479#0 231982479#1 231982479#2 231982479#3 681539364#0"/>
    </vehicle>
    <vehicle id="1.13" depart="31.20" color="red">
        <route edges="977523910 192512342 53551383#0"/>
    </vehicle>
    <vehicle id="10.13" depart="31.20" color="red">
        <route edges="231981990#1 725686333 971692797#0 971692797#1 971692797#2 971692798 977346734 192512337#0 192512337#1 330532283#0 330532283#1 192512371#0 192512371#1 192512371#2 192512371#3 192512371#4 192512371#5"/>
    </vehicle>
    <vehicle id="13.13" depart="31.20" color="red">
        <route edges="828862772 478798994 197995862"/>
    </vehicle>
    <vehicle id="4.13" depart="31.20" color="red">
        <route edges="818992111#4 330532357 977346734 136502345#0 136502345#1 971692819 971692797#0 192512353#0 192512353#1 192512312#0"/>
    </vehicle>
    <vehicle id="7.13" depart="31.20" color="red">
        <route edges="828862772 478798994 197995862"/>
    </vehicle>
    <vehicle id="11.9" depart="32.40" color="yellow">
        <route edges="192512365#2 192512411 231982479#1 231982479#2"/>
    </vehicle>
    <vehicle id="2.9" depart="32.40" color="yellow">
        <route edges="818992111#4 192512402#0 192512402#1 192512402#2 330532283#0"/>
    </vehicle>
    <vehicle id="5.9" depart="32.40" color="yellow">
        <route edges="192512365#2 192512411 231982479#1 231982479#2"/>
    </vehicle>
    <vehicle id="8.9" depart="32.40" color="yellow">
        <route edges="231981990#1 192512406 192512312#0"/>
    </vehicle>
    <vehicle id="1.14" depart="33.60" color="red">
        <route edges="977523910 192512342 53551383#0"/>
    </vehicle>
    <vehicle id="10.14" depart="33.60" color="red">
        <route edges="231981990#1 725686333 971692797#0 971692797#1 971692797#2 971692798 977346734 192512337#0 192512337#1 330532283#0 330532283#1 192512371#0 192512371#1 192512371#2 192512371#3 192512371#4 192512371#5"/>
    </vehicle>
    <vehicle id="13.14" depart="33.60" color="red">
        <route edges="828862772 478798994 197995862"/>
    </vehicle>
    <vehicle id="4.14" depart="33.60" color="red">
        <route edges="818992111#4 330532357 977346734 136502345#0 136502345#1 971692819 971692797#0 192512353#0 192512353#1 192512312#0"/>
    </vehicle>
    <vehicle id="7.14" depart="33.60" color="red">
        <route edges="828862772 478798994 197995862"/>
    </vehicle>
    <vehicle id="1.15" depart="36.00" color="red">
        <route edges="977523910 192512342 53551383#0"/>
    </vehicle>
    <vehicle id="10.15" depart="36.00" color="red">
        <route edges="231981990#1 725686333 971692797#0 971692797#1 971692797#2 971692798 977346734 192512337#0 192512337#1 330532283#0 330532283#1 192512371#0 192512371#1 192512371#2 192512371#3 192512371#4 192512371#5"/>
    </vehicle>
    <vehicle id="11.10" depart="36.00" color="yellow">
        <route edges="192512365#2 192512411 231982479#1 231982479#2"/>
    </vehicle>
    <vehicle id="12.5" depart="36.00" color="green">
        <route edges="828862775 478798993 478798995"/>
    </vehicle>
    <vehicle id="13.15" depart="36.00" color="red">
        <route edges="828862772 478798994 197995862"/>
    </vehicle>
    <vehicle id="2.10" depart="36.00" color="yellow">
        <route edges="818992111#4 192512402#0 192512402#1 192512402#2 330532283#0"/>
    </vehicle>
    <vehicle id="3.5" depart="36.00" color="green">
        <route edges="818992111#4 330532357 977346734 136502345#0 136502345#1 977523911 53551383#0"/>
    </vehicle>
    <vehicle id="4.15" depart="36.00" color="red">
        <route edges="818992111#4 330532357 977346734 136502345#0 136502345#1 971692819 971692797#0 192512353#0 192512353#1 192512312#0"/>
    </vehicle>
    <vehicle id="5.10" depart="36.00" color="yellow">
        <route edges="192512365#2 192512411 231982479#1 231982479#2"/>
    </vehicle>
    <vehicle id="6.5" depart="36.00" color="green">
        <route edges="828862775 478798993 478798995"/>
    </vehicle>
    <vehicle id="7.15" depart="36.00" color="red">
        <route edges="828862772 478798994 197995862"/>
    </vehicle>
    <vehicle id="8.10" depart="36.00" color="yellow">
        <route edges="231981990#1 192512406 192512312#0"/>
    </vehicle>
    <vehicle id="9.5" depart="36.00" color="green">
        <route edges="231981990#1 725686333 971692797#0 971692797#1 971692797#2 231982479#0 231982479#1 231982479#2 231982479#3 681539364#0"/>
    </vehicle>
    <vehicle id="1.16" depart="38.40" color="red">
        <route edges="977523910 192512342 53551383#0"/>
    </vehicle>
    <vehicle id="10.16" depart="38.40" color="red">
        <route edges="231981990#1 725686333 971692797#0 971692797#1 971692797#2 971692798 977346734 192512337#0 192512337#1 330532283#0 330532283#1 192512371#0 192512371#1 192512371#2 192512371#3 192512371#4 192512371#5"/>
    </vehicle>
    <vehicle id="13.16" depart="38.40" color="red">
        <route edges="828862772 478798994 197995862"/>
    </vehicle>
    <vehicle id="4.16" depart="38.40" color="red">
        <route edges="818992111#4 330532357 977346734 136502345#0 136502345#1 971692819 971692797#0 192512353#0 192512353#1 192512312#0"/>
    </vehicle>
    <vehicle id="7.16" depart="38.40" color="red">
        <route edges="828862772 478798994 197995862"/>
    </vehicle>
    <vehicle id="11.11" depart="39.60" color="yellow">
        <route edges="192512365#2 192512411 231982479#1 231982479#2"/>
    </vehicle>
    <vehicle id="2.11" depart="39.60" color="yellow">
        <route edges="818992111#4 192512402#0 192512402#1 192512402#2 330532283#0"/>
    </vehicle>
    <vehicle id="5.11" depart="39.60" color="yellow">
        <route edges="192512365#2 192512411 231982479#1 231982479#2"/>
    </vehicle>
    <vehicle id="8.11" depart="39.60" color="yellow">
        <route edges="231981990#1 192512406 192512312#0"/>
    </vehicle>
    <vehicle id="1.17" depart="40.80" color="red">
        <route edges="977523910 192512342 53551383#0"/>
    </vehicle>
    <vehicle id="10.17" depart="40.80" color="red">
        <route edges="231981990#1 725686333 971692797#0 971692797#1 971692797#2 971692798 977346734 192512337#0 192512337#1 330532283#0 330532283#1 192512371#0 192512371#1 192512371#2 192512371#3 192512371#4 192512371#5"/>
    </vehicle>
    <vehicle id="13.17" depart="40.80" color="red">
        <route edges="828862772 478798994 197995862"/>
    </vehicle>
    <vehicle id="4.17" depart="40.80" color="red">
        <route edges="818992111#4 330532357 977346734 136502345#0 136502345#1 971692819 971692797#0 192512353#0 192512353#1 192512312#0"/>
    </vehicle>
    <vehicle id="7.17" depart="40.80" color="red">
        <route edges="828862772 478798994 197995862"/>
    </vehicle>
    <vehicle id="1.18" depart="43.20" color="red">
        <route edges="977523910 192512342 53551383#0"/>
    </vehicle>
    <vehicle id="10.18" depart="43.20" color="red">
        <route edges="231981990#1 725686333 971692797#0 971692797#1 971692797#2 971692798 977346734 192512337#0 192512337#1 330532283#0 330532283#1 192512371#0 192512371#1 192512371#2 192512371#3 192512371#4 192512371#5"/>
    </vehicle>
    <vehicle id="11.12" depart="43.20" color="yellow">
        <route edges="192512365#2 192512411 231982479#1 231982479#2"/>
    </vehicle>
    <vehicle id="12.6" depart="43.20" color="green">
        <route edges="828862775 478798993 478798995"/>
    </vehicle>
    <vehicle id="13.18" depart="43.20" color="red">
        <route edges="828862772 478798994 197995862"/>
    </vehicle>
    <vehicle id="2.12" depart="43.20" color="yellow">
        <route edges="818992111#4 192512402#0 192512402#1 192512402#2 330532283#0"/>
    </vehicle>
    <vehicle id="3.6" depart="43.20" color="green">
        <route edges="818992111#4 330532357 977346734 136502345#0 136502345#1 977523911 53551383#0"/>
    </vehicle>
    <vehicle id="4.18" depart="43.20" color="red">
        <route edges="818992111#4 330532357 977346734 136502345#0 136502345#1 971692819 971692797#0 192512353#0 192512353#1 192512312#0"/>
    </vehicle>
    <vehicle id="5.12" depart="43.20" color="yellow">
        <route edges="192512365#2 192512411 231982479#1 231982479#2"/>
    </vehicle>
    <vehicle id="6.6" depart="43.20" color="green">
        <route edges="828862775 478798993 478798995"/>
    </vehicle>
    <vehicle id="7.18" depart="43.20" color="red">
        <route edges="828862772 478798994 197995862"/>
    </vehicle>
    <vehicle id="8.12" depart="43.20" color="yellow">
        <route edges="231981990#1 192512406 192512312#0"/>
    </vehicle>
    <vehicle id="9.6" depart="43.20" color="green">
        <route edges="231981990#1 725686333 971692797#0 971692797#1 971692797#2 231982479#0 231982479#1 231982479#2 231982479#3 681539364#0"/>
    </vehicle>
    <vehicle id="1.19" depart="45.60" color="red">
        <route edges="977523910 192512342 53551383#0"/>
    </vehicle>
    <vehicle id="10.19" depart="45.60" color="red">
        <route edges="231981990#1 725686333 971692797#0 971692797#1 971692797#2 971692798 977346734 192512337#0 192512337#1 330532283#0 330532283#1 192512371#0 192512371#1 192512371#2 192512371#3 192512371#4 192512371#5"/>
    </vehicle>
    <vehicle id="13.19" depart="45.60" color="red">
        <route edges="828862772 478798994 197995862"/>
    </vehicle>
    <vehicle id="4.19" depart="45.60" color="red">
        <route edges="818992111#4 330532357 977346734 136502345#0 136502345#1 971692819 971692797#0 192512353#0 192512353#1 192512312#0"/>
    </vehicle>
    <vehicle id="7.19" depart="45.60" color="red">
        <route edges="828862772 478798994 197995862"/>
    </vehicle>
    <vehicle id="11.13" depart="46.80" color="yellow">
        <route edges="192512365#2 192512411 231982479#1 231982479#2"/>
    </vehicle>
    <vehicle id="2.13" depart="46.80" color="yellow">
        <route edges="818992111#4 192512402#0 192512402#1 192512402#2 330532283#0"/>
    </vehicle>
    <vehicle id="5.13" depart="46.80" color="yellow">
        <route edges="192512365#2 192512411 231982479#1 231982479#2"/>
    </vehicle>
    <vehicle id="8.13" depart="46.80" color="yellow">
        <route edges="231981990#1 192512406 192512312#0"/>
    </vehicle>